documentation/resources/exampleIEEE14/IEEE14.iidm
<?xml version="1.0" encoding="UTF-8"?>
<iidm:network xmlns:iidm="http://www.itesla_project.eu/schema/iidm/1_0" id="ieee14bus" caseDate="2017-06-09T10:14:24.146+02:00" forecastDistance="0" sourceFormat="CIM1">
    <iidm:substation id="_BUS___10_SS" name="BUS   10_SS" country="AF" geographicalTags="_SGR_01">
        <iidm:voltageLevel id="_BUS___10_VL" name="BUS   10_VL" nominalV="13.8" topologyKind="BUS_BREAKER">
            <iidm:busBreakerTopology>
                <iidm:bus id="_BUS___10_TN" v="14.524137" angle="-15.113294"/>
            </iidm:busBreakerTopology>
            <iidm:load id="_LOAD__10_EC" name="LOAD  10" loadType="UNDEFINED" p0="9.0" q0="5.8" bus="_BUS___10_TN" connectableBus="_BUS___10_TN" p="9.0" q="5.8"/>
        </iidm:voltageLevel>
    </iidm:substation>
    <iidm:substation id="_BUS___11_SS" name="BUS   11_SS" country="AF" geographicalTags="_SGR_01">
        <iidm:voltageLevel id="_BUS___11_VL" name="BUS   11_VL" nominalV="13.8" topologyKind="BUS_BREAKER">
            <iidm:busBreakerTopology>
                <iidm:bus id="_BUS___11_TN" v="14.5959015" angle="-14.809061"/>
            </iidm:busBreakerTopology>
            <iidm:load id="_LOAD__11_EC" name="LOAD  11" loadType="UNDEFINED" p0="3.5" q0="1.8" bus="_BUS___11_TN" connectableBus="_BUS___11_TN" p="3.5" q="1.8"/>
        </iidm:voltageLevel>
    </iidm:substation>
    <iidm:line id="_BUS___10-BUS___11-1_AC" name="BUS   10-BUS   11-1" r="0.156256" x="0.365778" g1="0.0" b1="0.0" g2="0.0" b2="0.0" bus1="_BUS___10_TN" connectableBus1="_BUS___10_TN" voltageLevelId1="_BUS___10_VL" bus2="_BUS___11_TN" connectableBus2="_BUS___11_TN" voltageLevelId2="_BUS___11_VL" p1="-3.628976" q1="-1.291152" p2="3.639966" q2="1.316878">
        <iidm:currentLimits1 permanentLimit="4183.7"/>
    </iidm:line>
</iidm:network>
